26
isoctano.pdb
C          1.65000       -1.35600       -0.05300
C          1.35900        0.11900        0.22900
C          2.59400        0.95600       -0.11200
C          0.17900        0.57900       -0.63000
C         -1.12700        0.07000       -0.01600
C         -1.27200        0.62200        1.40400
C         -2.30800        0.53800       -0.86900
C         -1.10600       -1.45900        0.03100
H          2.61300       -1.62600        0.38100
H          0.86700       -1.97200        0.39100
H          1.67700       -1.52200       -1.12900
H          1.11300        0.24700        1.28300
H          2.41500        1.99600        0.16300
H          3.45300        0.57700        0.44100
H          2.79200        0.89300       -1.18100
H          0.16100        1.66800       -0.67000
H          0.28600        0.18000       -1.63800
H         -1.15800        1.70600        1.38600
H         -2.25800        0.36700        1.79300
H         -0.50500        0.18600        2.04300
H         -2.20400        0.14500       -1.88000
H         -3.23800        0.17500       -0.43100
H         -2.32300        1.62700       -0.90200
H         -0.56400       -1.78800        0.91800
H         -2.12900       -1.83500        0.07000
H         -0.61200       -1.84300       -0.86100
